Circuit: * C:\Users\Santiago\Documents\DeepSpice\data_generator\output.asc

Direct Newton iteration for .op point succeeded.

Date: Fri Aug 25 10:51:05 2023
Total elapsed time: 0.093 seconds.

tnom = 27
temp = 27
method = modified trap
totiter = 2091
traniter = 2088
tranpoints = 1045
accept = 1045
rejected = 0
matrix size = 2
fillins = 0
solver = Normal
Avg thread counts: 2.9/4.8/4.8/2.9
Matrix Compiler1: off  [0.0]/0.0/0.1
Matrix Compiler2: off  [0.1]/0.1/0.1

